[TITLE]
L-TOWN v1.2
L-TOWN (v1.2) was developed by KIOS Research and Innovation Center of Excellence for the BattLeDIM 2020 competition

[JUNCTIONS]
;ID              	Elev        	Demand      	Pattern         
 n1              	73.2105     	0.000000    	P-Residential   	;AMR & PRESSURE SENSOR
 n2              	73.8737     	0.169920    	P-Residential   	;AMR
 n3              	73.1782     	0.190800    	P-Residential   	;AMR
 n4              	68.2608     	0.000000    	P-Residential   	;AMR & PRESSURE SENSOR
 n5              	65.5695     	0.232200    	P-Residential   	;
 n6              	70.9095     	0.246600    	P-Residential   	;AMR
 n7              	75.9175     	0.378360    	P-Residential   	;AMR
 n8              	64.4833     	0.301320    	P-Residential   	;AMR
 n9              	69.2626     	0.404640    	P-Residential   	;AMR
 n10             	74.3469     	0.084240    	P-Residential   	;AMR
 n11             	63.0588     	0.544320    	P-Residential   	;AMR
 n12             	68.2274     	0.058320    	P-Residential   	;
 n13             	61.9901     	0.235800    	P-Residential   	;AMR
 n14             	68.5805     	0.019440    	P-Residential   	;
 n15             	70.9492     	0.191520    	P-Residential   	;
 n16             	68.7986     	0.096480    	P-Residential   	;AMR
 n17             	60.5935     	0.448920    	P-Residential   	;AMR
 n18             	67.1420     	0.072360    	P-Residential   	;AMR
 n19             	73.3626     	0.129240    	P-Residential   	;AMR
 n20             	65.9549     	0.144360    	P-Residential   	;AMR
 n21             	59.6849     	0.060840    	P-Residential   	;AMR
 n22             	76.1173     	0.150840    	P-Residential   	;AMR
 n23             	64.2052     	0.028690    	P-Residential   	;AMR
 n24             	67.8217     	0.043920    	P-Residential   	;AMR
 n25             	58.9717     	0.000000    	P-Residential   	;AMR
 n26             	61.6305     	0.004680    	P-Residential   	;AMR
 n27             	65.7763     	0.130680    	P-Residential   	;AMR
 n28             	61.4047     	0.000000    	P-Residential   	;AMR
 n29             	71.5429     	0.048960    	P-Residential   	;AMR
 n30             	75.3299     	0.305640    	P-Residential   	;AMR
 n31             	65.0059     	0.116280    	P-Residential   	;AMR & PRESSURE SENSOR
 n32             	71.1590     	0.079920    	P-Residential   	;AMR
 n33             	60.5902     	0.002880    	P-Residential   	;AMR
 n34             	65.8482     	0.112320    	P-Residential   	;AMR
 n35             	59.6258     	0.000000    	P-Residential   	;AMR
 n36             	70.1959     	0.266400    	P-Residential   	;AMR
 n37             	63.9172     	0.084600    	P-Residential   	;
 n38             	58.5794     	0.188890    	P-Residential   	;
 n39             	62.9791     	0.016560    	P-Residential   	;AMR
 n40             	60.2093     	0.342000    	P-Residential   	;AMR
 n41             	69.2961     	0.170280    	P-Residential   	;AMR
 n42             	61.0635     	0.243000    	P-Residential   	;AMR
 n43             	61.8585     	0.118080    	P-Residential   	;AMR
 n44             	66.1177     	0.038880    	P-Residential   	;AMR
 n45             	62.5989     	0.272880    	P-Residential   	;AMR
 n343            	66.1200     	0.128300    	P-Residential   	;AMR
 n344            	74.2800     	0.266400    	P-Residential   	;AMR
 n345            	71.2300     	0.052560    	P-Residential   	;AMR
 n346            	67.9300     	0.178560    	P-Residential   	;AMR
 n347            	73.6617     	0.000000    	P-Residential   	;AMR
 n348            	74.1128     	0.029880    	P-Residential   	;
 n349            	74.5640     	0.059760    	P-Residential   	;AMR
 n350            	75.0152     	0.208440    	P-Residential   	;AMR
 n351            	75.4663     	0.392400    	P-Residential   	;AMR
 n352            	74.1103     	0.133200    	P-Residential   	;AMR
 n353            	73.5455     	0.292680    	P-Residential   	;AMR
 n354            	73.9127     	0.123120    	P-Residential   	;AMR
 n355            	66.4555     	0.438120    	P-Residential   	;AMR
 n356            	67.3414     	0.124200    	P-Residential   	;AMR
 n357            	69.7450     	0.102240    	P-Residential   	;AMR
 n358            	75.9841     	0.550080    	P-Residential   	;AMR
 n359            	76.0507     	0.388080    	P-Residential   	;
 n360            	64.9738     	0.268200    	P-Residential   	;AMR
 n361            	65.4644     	0.113400    	P-Residential   	;AMR
 n362            	74.0188     	0.005760    	P-Residential   	;AMR
 n363            	73.6907     	0.154440    	P-Residential   	;
 n364            	63.4409     	0.099360    	P-Residential   	;AMR
 n365            	63.8231     	0.110520    	P-Residential   	;AMR
 n366            	61.8702     	0.163800    	P-Residential   	;AMR
 n367            	61.7504     	0.044890    	P-Residential   	;AMR
 n368            	71.0896     	0.115560    	P-Residential   	;AMR
 n369            	60.5924     	0.177840    	P-Residential   	;AMR
 n370            	60.5913     	0.040270    	P-Residential   	;AMR
 n371            	73.8213     	0.070560    	P-Residential   	;AMR
 n372            	65.8656     	0.036000    	P-Residential   	;AMR
 n373            	59.6553     	0.030600    	P-Residential   	;AMR
 n374            	74.9737     	0.112680    	P-Residential   	;AMR
 n375            	73.8301     	0.058680    	P-Residential   	;AMR
 n376            	72.6865     	0.128160    	P-Residential   	;AMR
 n377            	62.9179     	0.000000    	P-Residential   	;AMR
 n378            	68.9578     	0.013680    	P-Residential   	;AMR
 n379            	70.0939     	0.097200    	P-Residential   	;AMR
 n380            	61.2341     	0.168120    	P-Residential   	;
 n381            	74.0464     	0.230040    	P-Residential   	;AMR
 n382            	72.7629     	0.147600    	P-Residential   	;AMR
 n383            	71.4794     	0.084600    	P-Residential   	;AMR
 n384            	69.5445     	0.210240    	P-Residential   	;AMR
 n385            	66.8891     	0.048960    	P-Residential   	;AMR
 n386            	59.3943     	0.248760    	P-Residential   	;AMR
 n387            	64.9448     	0.160920    	P-Residential   	;AMR
 n388            	63.7718     	0.298510    	P-Residential   	;AMR
 n389            	67.0238     	0.168120    	P-Residential   	;AMR

[RESERVOIRS]
;ID              	Head        	Pattern         
 R1              	100         	                	;

[TANKS]
;ID              	Elevation   	InitLevel   	MinLevel    	MaxLevel    	Diameter    	MinVol      	VolCurve        	Overflow

[PIPES]
;ID              	Node1           	Node2           	Length      	Diameter    	Roughness   	MinorLoss   	Status
 p5              	n3              	n2              	23.7879     	100.0000    	140.0000    	0.0000      	Open  	;
 p6              	n12             	n14             	31.2114     	100.0000    	140.0000    	0.0000      	Open  	;
 p7              	n6              	n9              	43.3995     	100.0000    	140.0000    	0.0000      	Open  	;
 p8              	n22             	n30             	53.0045     	100.0000    	140.0000    	0.0000      	Open  	;
 p11             	n7              	n10             	68.3713     	100.0000    	140.0000    	0.0000      	Open  	;
 p12             	n9              	n4              	70.3494     	100.0000    	140.0000    	0.0000      	Open  	;
 p13             	n31             	n27             	49.4422     	100.0000    	140.0000    	0.0000      	Open  	;
 p14             	n14             	n16             	34.2032     	100.0000    	140.0000    	0.0000      	Open  	;
 p15             	n15             	n16             	72.2253     	100.0000    	140.0000    	0.0000      	Open  	;
 p16             	n16             	n18             	50.1237     	100.0000    	140.0000    	0.0000      	Open  	;
 p17             	n18             	n20             	54.2489     	100.0000    	140.0000    	0.0000      	Open  	;
 p18             	n18             	n24             	65.1910     	100.0000    	140.0000    	0.0000      	Open  	;
 p19             	n21             	n25             	56.4633     	100.0000    	140.0000    	0.0000      	Open  	;
 p20             	n26             	n28             	29.6436     	100.0000    	140.0000    	0.0000      	Open  	;
 p21             	n27             	n34             	47.7731     	100.0000    	140.0000    	0.0000      	Open  	;
 p22             	n28             	n33             	43.8692     	100.0000    	140.0000    	0.0000      	Open  	;
 p23             	n29             	n32             	18.6286     	100.0000    	140.0000    	0.0000      	Open  	;
 p24             	n32             	n36             	50.1077     	100.0000    	140.0000    	0.0000      	Open  	;
 p25             	n33             	n35             	72.5123     	100.0000    	140.0000    	0.0000      	Open  	;
 p26             	n34             	n37             	60.0953     	100.0000    	140.0000    	0.0000      	Open  	;
 p27             	n35             	n38             	38.7224     	100.0000    	140.0000    	0.0000      	Open  	;
 p28             	n36             	n41             	42.5986     	100.0000    	140.0000    	0.0000      	Open  	;
 p29             	n37             	n45             	63.0851     	100.0000    	140.0000    	0.0000      	Open  	;
 p30             	n37             	n39             	49.6992     	100.0000    	140.0000    	0.0000      	Open  	;
 p31             	n40             	n42             	48.2914     	100.0000    	140.0000    	0.0000      	Open  	;
 p32             	n42             	n43             	41.6678     	100.0000    	140.0000    	0.0000      	Open  	;
 p33             	n43             	n45             	40.4763     	100.0000    	140.0000    	0.0000      	Open  	;
 p239            	R1              	n343            	26.9887     	150         	140.0000    	0.0000      	Open  	;
 p240            	n343            	n44             	23.9926     	150         	140.0000    	0.0000      	Open  	;
 p241            	n5              	n8              	52.1570     	100.0000    	140.0000    	0.0000      	Open  	;
 p242            	n8              	n11             	62.8657     	100.0000    	140.0000    	0.0000      	Open  	;
 p243            	n11             	n13             	58.9374     	100.0000    	140.0000    	0.0000      	Open  	;
 p244            	n13             	n17             	72.0893     	100.0000    	140.0000    	0.0000      	Open  	;
 p245            	n17             	n21             	73.4228     	100.0000    	140.0000    	0.0000      	Open  	;
 p246            	n10             	n344            	66.1972     	100.0000    	140.0000    	0.0000      	Open  	;
 p247            	n344            	n15             	62.8912     	100.0000    	140.0000    	0.0000      	Open  	;
 p248            	n24             	n346            	56.5717     	100.0000    	140.0000    	0.0000      	Open  	;
 p249            	n345            	n29             	60.1765     	100.0000    	140.0000    	0.0000      	Open  	;
 p250            	n19             	n345            	63.0229     	100.0000    	140.0000    	0.0000      	Open  	;
 p251            	n23             	n31             	48.4540     	100.0000    	140.0000    	0.0000      	Open  	;
 p252            	n20             	n23             	61.1031     	100.0000    	140.0000    	0.0000      	Open  	;
 p253            	n1              	n347            	68.0970     	100.0000    	140.0000    	0.0000      	Open  	;
 p254            	n347            	n348            	45.4723     	100.0000    	140.0000    	0.0000      	Open  	;
 p255            	n348            	n349            	50.5431     	100.0000    	140.0000    	0.0000      	Open  	;
 p256            	n349            	n350            	50.0042     	100.0000    	140.0000    	0.0000      	Open  	;
 p257            	n350            	n351            	45.6975     	100.0000    	140.0000    	0.0000      	Open  	;
 p258            	n351            	n7              	54.9718     	100.0000    	140.0000    	0.0000      	Open  	;
 p259            	n2              	n352            	45.9778     	100.0000    	140.0000    	0.0000      	Open  	;
 p260            	n352            	n10             	45.9758     	100.0000    	140.0000    	0.0000      	Open  	;
 p261            	n3              	n353            	47.9576     	100.0000    	140.0000    	0.0000      	Open  	;
 p262            	n353            	n354            	46.1673     	100.0000    	140.0000    	0.0000      	Open  	;
 p263            	n354            	n344            	46.6814     	100.0000    	140.0000    	0.0000      	Open  	;
 p264            	n5              	n355            	58.9057     	100.0000    	140.0000    	0.0000      	Open  	;
 p265            	n355            	n356            	47.8409     	100.0000    	140.0000    	0.0000      	Open  	;
 p266            	n356            	n12             	42.6386     	100.0000    	140.0000    	0.0000      	Open  	;
 p267            	n6              	n357            	44.7387     	100.0000    	140.0000    	0.0000      	Open  	;
 p268            	n357            	n14             	74.2158     	100.0000    	140.0000    	0.0000      	Open  	;
 p269            	n7              	n358            	54.8852     	100.0000    	140.0000    	0.0000      	Open  	;
 p270            	n358            	n359            	54.8734     	100.0000    	140.0000    	0.0000      	Open  	;
 p271            	n359            	n22             	54.8852     	100.0000    	140.0000    	0.0000      	Open  	;
 p272            	n8              	n360            	54.4422     	100.0000    	140.0000    	0.0000      	Open  	;
 p273            	n360            	n361            	54.4379     	100.0000    	140.0000    	0.0000      	Open  	;
 p274            	n361            	n20             	54.4422     	100.0000    	140.0000    	0.0000      	Open  	;
 p275            	n10             	n362            	55.0520     	100.0000    	140.0000    	0.0000      	Open  	;
 p276            	n362            	n363            	42.0531     	100.0000    	140.0000    	0.0000      	Open  	;
 p277            	n363            	n19             	52.7753     	100.0000    	140.0000    	0.0000      	Open  	;
 p278            	n11             	n364            	49.2109     	100.0000    	140.0000    	0.0000      	Open  	;
 p279            	n364            	n365            	49.2020     	100.0000    	140.0000    	0.0000      	Open  	;
 p280            	n365            	n23             	49.2109     	100.0000    	140.0000    	0.0000      	Open  	;
 p281            	n13             	n366            	46.9238     	100.0000    	140.0000    	0.0000      	Open  	;
 p282            	n366            	n367            	46.9108     	100.0000    	140.0000    	0.0000      	Open  	;
 p283            	n367            	n26             	46.9238     	100.0000    	140.0000    	0.0000      	Open  	;
 p284            	n15             	n368            	40.9555     	100.0000    	140.0000    	0.0000      	Open  	;
 p285            	n368            	n345            	40.9555     	100.0000    	140.0000    	0.0000      	Open  	;
 p286            	n17             	n369            	41.7936     	100.0000    	140.0000    	0.0000      	Open  	;
 p287            	n369            	n370            	41.7842     	100.0000    	140.0000    	0.0000      	Open  	;
 p288            	n370            	n33             	41.7936     	100.0000    	140.0000    	0.0000      	Open  	;
 p289            	n19             	n371            	44.3754     	100.0000    	140.0000    	0.0000      	Open  	;
 p290            	n371            	n344            	44.3880     	100.0000    	140.0000    	0.0000      	Open  	;
 p291            	n20             	n372            	52.1064     	100.0000    	140.0000    	0.0000      	Open  	;
 p292            	n372            	n27             	31.2938     	100.0000    	140.0000    	0.0000      	Open  	;
 p293            	n21             	n373            	56.6909     	100.0000    	140.0000    	0.0000      	Open  	;
 p294            	n373            	n35             	56.6782     	100.0000    	140.0000    	0.0000      	Open  	;
 p295            	n22             	n374            	45.2612     	100.0000    	140.0000    	0.0000      	Open  	;
 p296            	n374            	n375            	45.2612     	100.0000    	140.0000    	0.0000      	Open  	;
 p297            	n375            	n376            	45.2708     	100.0000    	140.0000    	0.0000      	Open  	;
 p298            	n376            	n29             	45.2612     	100.0000    	140.0000    	0.0000      	Open  	;
 p299            	n23             	n377            	37.9110     	100.0000    	140.0000    	0.0000      	Open  	;
 p300            	n377            	n26             	37.9200     	100.0000    	140.0000    	0.0000      	Open  	;
 p301            	n24             	n378            	42.1213     	100.0000    	140.0000    	0.0000      	Open  	;
 p302            	n378            	n379            	42.1282     	100.0000    	140.0000    	0.0000      	Open  	;
 p303            	n379            	n345            	42.1213     	100.0000    	140.0000    	0.0000      	Open  	;
 p304            	n28             	n380            	51.8914     	100.0000    	140.0000    	0.0000      	Open  	;
 p305            	n380            	n42             	51.8798     	100.0000    	140.0000    	0.0000      	Open  	;
 p306            	n30             	n381            	49.2268     	100.0000    	140.0000    	0.0000      	Open  	;
 p307            	n381            	n382            	49.2364     	100.0000    	140.0000    	0.0000      	Open  	;
 p308            	n382            	n383            	49.2241     	100.0000    	140.0000    	0.0000      	Open  	;
 p309            	n383            	n36             	49.2364     	100.0000    	140.0000    	0.0000      	Open  	;
 p310            	n32             	n384            	54.2583     	100.0000    	140.0000    	0.0000      	Open  	;
 p311            	n384            	n346            	54.2656     	100.0000    	140.0000    	0.0000      	Open  	;
 p312            	n34             	n385            	37.8059     	100.0000    	140.0000    	0.0000      	Open  	;
 p313            	n385            	n346            	37.8079     	100.0000    	140.0000    	0.0000      	Open  	;
 p314            	n38             	n386            	58.7666     	100.0000    	140.0000    	0.0000      	Open  	;
 p315            	n386            	n40             	58.7569     	100.0000    	140.0000    	0.0000      	Open  	;
 p316            	n44             	n387            	48.3058     	150         	140.0000    	0.0000      	Open  	;
 p317            	n387            	n388            	48.3053     	150         	140.0000    	0.0000      	Open  	;
 p318            	n388            	n45             	48.3058     	150         	140.0000    	0.0000      	Open  	;
 p319            	n44             	n389            	41.9903     	100.0000    	140.0000    	0.0000      	Open  	;
 p320            	n389            	n346            	41.9919     	100.0000    	140.0000    	0.0000      	Open  	;

[PUMPS]
;ID              	Node1           	Node2           	Parameters

[VALVES]
;ID              	Node1           	Node2           	Diameter    	Type	Setting     	MinorLoss   

[TAGS]

[DEMANDS]
;Junction        	Demand      	Pattern         	Category
 n1              	0.000000    	P-Residential   	;                   
 n1              	0.000000    	P-Commercial    	;                   
 n1              	0.660240    	P-Industrial    	;    
 n2              	0.169920    	P-Residential   	;                   
 n2              	0.000000    	P-Commercial    	;                   
 n2              	0.000000    	P-Industrial    	;    
 n3              	0.190800    	P-Residential   	;                   
 n3              	0.000000    	P-Commercial    	;                   
 n3              	0.000000    	P-Industrial    	;    
 n4              	0.000000    	P-Residential   	;                   
 n4              	0.000000    	P-Commercial    	;                   
 n4              	1.501200    	P-Industrial    	;    
 n5              	0.232200    	P-Residential   	;                   
 n5              	0.000000    	P-Commercial    	;                   
 n5              	0.000000    	P-Industrial    	;    
 n6              	0.246600    	P-Residential   	;                   
 n6              	0.000000    	P-Commercial    	;                   
 n6              	0.000000    	P-Industrial    	;    
 n7              	0.378360    	P-Residential   	;                   
 n7              	0.000000    	P-Commercial    	;                   
 n7              	0.000000    	P-Industrial    	;    
 n8              	0.301320    	P-Residential   	;                   
 n8              	0.000000    	P-Commercial    	;                   
 n8              	0.000000    	P-Industrial    	;    
 n9              	0.404640    	P-Residential   	;                   
 n9              	0.000000    	P-Commercial    	;                   
 n9              	0.000000    	P-Industrial    	;    
 n10             	0.084240    	P-Residential   	;                   
 n10             	0.000000    	P-Commercial    	;                   
 n10             	0.000000    	P-Industrial    	;    
 n11             	0.544320    	P-Residential   	;                   
 n11             	0.000000    	P-Commercial    	;                   
 n11             	0.000000    	P-Industrial    	;    
 n12             	0.058320    	P-Residential   	;                   
 n12             	0.000000    	P-Commercial    	;                   
 n12             	0.000000    	P-Industrial    	;    
 n13             	0.235800    	P-Residential   	;                   
 n13             	0.000000    	P-Commercial    	;                   
 n13             	0.000000    	P-Industrial    	;    
 n14             	0.019440    	P-Residential   	;                   
 n14             	0.000000    	P-Commercial    	;                   
 n14             	0.000000    	P-Industrial    	;    
 n15             	0.191520    	P-Residential   	;                   
 n15             	0.000000    	P-Commercial    	;                   
 n15             	0.000000    	P-Industrial    	;    
 n16             	0.096480    	P-Residential   	;                   
 n16             	0.000000    	P-Commercial    	;                   
 n16             	0.000000    	P-Industrial    	;    
 n17             	0.448920    	P-Residential   	;                   
 n17             	0.000000    	P-Commercial    	;                   
 n17             	0.000000    	P-Industrial    	;    
 n18             	0.072360    	P-Residential   	;                   
 n18             	0.000000    	P-Commercial    	;                   
 n18             	0.000000    	P-Industrial    	;    
 n19             	0.129240    	P-Residential   	;                   
 n19             	0.000000    	P-Commercial    	;                   
 n19             	0.000000    	P-Industrial    	;    
 n20             	0.144360    	P-Residential   	;                   
 n20             	0.000000    	P-Commercial    	;                   
 n20             	0.000000    	P-Industrial    	;    
 n21             	0.060840    	P-Residential   	;                   
 n21             	0.000000    	P-Commercial    	;                   
 n21             	0.000000    	P-Industrial    	;    
 n22             	0.150840    	P-Residential   	;                   
 n22             	0.000000    	P-Commercial    	;                   
 n22             	0.000000    	P-Industrial    	;    
 n23             	0.028690    	P-Residential   	;                   
 n23             	0.105230    	P-Commercial    	;                   
 n23             	0.000000    	P-Industrial    	;    
 n24             	0.043920    	P-Residential   	;                   
 n24             	0.000000    	P-Commercial    	;                   
 n24             	0.000000    	P-Industrial    	;    
 n25             	0.000000    	P-Residential   	;                   
 n25             	0.000000    	P-Commercial    	;                   
 n25             	1.737360    	P-Industrial    	;    
 n26             	0.004680    	P-Residential   	;                   
 n26             	0.023760    	P-Commercial    	;                   
 n26             	0.000000    	P-Industrial    	;    
 n27             	0.130680    	P-Residential   	;                   
 n27             	0.000000    	P-Commercial    	;                   
 n27             	0.000000    	P-Industrial    	;    
 n28             	0.000000    	P-Residential   	;                   
 n28             	0.392760    	P-Commercial    	;                   
 n28             	0.000000    	P-Industrial    	;    
 n29             	0.048960    	P-Residential   	;                   
 n29             	0.000000    	P-Commercial    	;                   
 n29             	0.000000    	P-Industrial    	;    
 n30             	0.305640    	P-Residential   	;                   
 n30             	0.000000    	P-Commercial    	;                   
 n30             	0.000000    	P-Industrial    	;    
 n31             	0.116280    	P-Residential   	;                   
 n31             	0.000000    	P-Commercial    	;                   
 n31             	0.000000    	P-Industrial    	;    
 n32             	0.079920    	P-Residential   	;                   
 n32             	0.000000    	P-Commercial    	;                   
 n32             	0.000000    	P-Industrial    	;    
 n33             	0.002880    	P-Residential   	;                   
 n33             	0.119520    	P-Commercial    	;                   
 n33             	0.000000    	P-Industrial    	;    
 n34             	0.112320    	P-Residential   	;                   
 n34             	0.000000    	P-Commercial    	;                   
 n34             	0.000000    	P-Industrial    	;    
 n35             	0.000000    	P-Residential   	;                   
 n35             	0.053280    	P-Commercial    	;                   
 n35             	0.000000    	P-Industrial    	;    
 n36             	0.266400    	P-Residential   	;                   
 n36             	0.000000    	P-Commercial    	;                   
 n36             	0.000000    	P-Industrial    	;    
 n37             	0.084600    	P-Residential   	;                   
 n37             	0.000000    	P-Commercial    	;                   
 n37             	0.000000    	P-Industrial    	;    
 n38             	0.188890    	P-Residential   	;                   
 n38             	0.325550    	P-Commercial    	;                   
 n38             	0.000000    	P-Industrial    	;    
 n39             	0.016560    	P-Residential   	;                   
 n39             	0.000000    	P-Commercial    	;                   
 n39             	0.000000    	P-Industrial    	;    
 n40             	0.342000    	P-Residential   	;                   
 n40             	0.000000    	P-Commercial    	;                   
 n40             	0.000000    	P-Industrial    	;    
 n41             	0.170280    	P-Residential   	;                   
 n41             	0.000000    	P-Commercial    	;                   
 n41             	0.000000    	P-Industrial    	;    
 n42             	0.243000    	P-Residential   	;                   
 n42             	0.000000    	P-Commercial    	;                   
 n42             	0.000000    	P-Industrial    	;    
 n43             	0.118080    	P-Residential   	;                   
 n43             	0.000000    	P-Commercial    	;                   
 n43             	0.000000    	P-Industrial    	;    
 n44             	0.038880    	P-Residential   	;                   
 n44             	0.000000    	P-Commercial    	;                   
 n44             	0.000000    	P-Industrial    	;    
 n45             	0.272880    	P-Residential   	;                   
 n45             	0.000000    	P-Commercial    	;                   
 n45             	0.000000    	P-Industrial    	;    
 n343            	0.128300    	P-Residential   	;                   
 n343            	0.011740    	P-Commercial    	;                   
 n343            	0.000000    	P-Industrial    	;    
 n344            	0.266400    	P-Residential   	;                   
 n344            	0.000000    	P-Commercial    	;                   
 n344            	0.000000    	P-Industrial    	;    
 n345            	0.052560    	P-Residential   	;                   
 n345            	0.000000    	P-Commercial    	;                   
 n345            	0.000000    	P-Industrial    	;    
 n346            	0.178560    	P-Residential   	;                   
 n346            	0.000000    	P-Commercial    	;                   
 n346            	0.000000    	P-Industrial    	;    
 n347            	0.000000    	P-Residential   	;                   
 n347            	0.000000    	P-Commercial    	;                   
 n347            	0.039600    	P-Industrial    	;    
 n348            	0.029880    	P-Residential   	;                   
 n348            	0.000000    	P-Commercial    	;                   
 n348            	0.000000    	P-Industrial    	;    
 n349            	0.059760    	P-Residential   	;                   
 n349            	0.000000    	P-Commercial    	;                   
 n349            	0.000000    	P-Industrial    	;    
 n350            	0.208440    	P-Residential   	;                   
 n350            	0.000000    	P-Commercial    	;                   
 n350            	0.000000    	P-Industrial    	;    
 n351            	0.392400    	P-Residential   	;                   
 n351            	0.000000    	P-Commercial    	;                   
 n351            	0.000000    	P-Industrial    	;    
 n352            	0.133200    	P-Residential   	;                   
 n352            	0.000000    	P-Commercial    	;                   
 n352            	0.000000    	P-Industrial    	;    
 n353            	0.292680    	P-Residential   	;                   
 n353            	0.000000    	P-Commercial    	;                   
 n353            	0.000000    	P-Industrial    	;    