[TITLE]


[JUNCTIONS]
;ID              	Elev        	Demand      	Pattern         
 2               	5           	10          	1               	;

[RESERVOIRS]
;ID              	Head        	Pattern         
 1               	10          	1               	;

[TANKS]
;ID              	Elevation   	InitLevel   	MinLevel    	MaxLevel    	Diameter    	MinVol      	VolCurve        	Overflow
 3               	10          	10          	0           	20          	50          	0           	1               	;

[PIPES]
;ID              	Node1           	Node2           	Length      	Diameter    	Roughness   	MinorLoss   	Status
 2               	2               	3               	1000        	250         	0.1         	0           	Open  	;

[PUMPS]
;ID              	Node1           	Node2           	Parameters
 1               	1               	2               	HEAD P1	;

[VALVES]
;ID              	Node1           	Node2           	Diameter    	Type	Setting     	MinorLoss   

[TAGS]

[DEMANDS]
;Junction        	Demand      	Pattern         	Category

[STATUS]
;ID              	Status/Setting

[PATTERNS]
;ID              	Multipliers
;
 1               	0.9         	1.0         	1.1         	1.0         	0.9         	1.0         
 1               	1.1         	1.0         	0.9         	1.0         	1.1         	1.0         
 1               	0.9         	1.0         	1.1         	1.0         	0.9         	1.0         
 1               	1.1         	1.0         	0.9         	1.0         	1.1         	1.0         

[CURVES]
;ID              	X-Value     	Y-Value
;PUMP: 
 P1              	100         	100         
 P1              	150         	80          
 P1              	200         	50          
;VOLUME: 
 1               	0           	0           
 1               	10          	500         
 1               	20          	1000        

[CONTROLS]

[RULES]
Rule 1
If Tank 3 Level above 19.8
then Pump 1 status is closed

Rule 2
If Tank 3 Level below 2
then Pump 1 status is open

[ENERGY]
 Global Efficiency  	75
 Global Price       	0
 Demand Charge      	0

[EMITTERS]
;Junction        	Coefficient

[QUALITY]
;Node            	InitQual

[SOURCES]
;Node            	Type        	Quality     	Pattern

[REACTIONS]
;Type     	Pipe/Tank       	Coefficient


[REACTIONS]
 Order Bulk            	1
 Order Tank            	1
 Order Wall            	1
 Global Bulk           	0
 Global Wall           	0
 Limiting Potential    	0
 Roughness Correlation 	0

[MIXING]
;Tank            	Model

[TIMES]
 Duration           	48
 Hydraulic Timestep 	1:00
 Quality Timestep   	0:05
 Pattern Timestep   	1:00
 Pattern Start      	0:00
 Report Timestep    	1:00
 Report Start       	0:00
 Start ClockTime    	12 am
 Statistic          	None

[REPORT]
 Status             	No
 Summary            	No
 Page               	0

[OPTIONS]
 Units              	LPS
 Headloss           	D-W
 Specific Gravity   	1
 Viscosity          	1
 Trials             	40
 Accuracy           	0.001
 CHECKFREQ          	2
 MAXCHECK           	10
 DAMPLIMIT          	0
 Unbalanced         	Continue 10
 Pattern            	1
 Demand Multiplier  	1.0
 Emitter Exponent   	0.5
 Quality            	None mg/L
 Diffusivity        	1
 Tolerance          	0.01

[COORDINATES]
;Node            	X-Coord           	Y-Coord
2               	1000.000          	7000.000          
1               	0.000             	7000.000          
3               	2000.000          	7000.000          

[VERTICES]
;Link            	X-Coord           	Y-Coord

[LABELS]
;X-Coord             Y-Coord             Label & Anchor Node

[BACKDROP]
  DIMENSIONS  	0.000             	0.000             	10000.000         	10000.000         
 UNITS          	None
 FILE           	
 OFFSET         	0.00            	0.00            

[END]
