[TITLE]


[JUNCTIONS]
;id elevation demand demandpattern
J-02 0.0 50.0 
 J-03 0.0 50.0 
 J-04 0.0 50.0 
 J-08 0.0 50.0 
 J-09 0.0 50.0 
 J-10 0.0 50.0 
 J-14 0.0 50.0 
 J-15 0.0 50.0 
 J-16 0.0 -10.0 
 2 0.0 0.0 
 3 0.0 0.0 
 
 [RESERVOIRS]
;id head pattern
R-01 52.0 
 R-02 1.0 
 
 [TANKS]
;id elevation initlevel minlevel maxlevel diameter minvolume volumecurve
T-01 0.0 10.0 0.0 20.0 50.0 0.0 
 
 [PIPES]
;id startnode endnode length diameter roughness minorloss
P-01 R-01 J-02 100.0 600.0 0.26 0.0 
 P-02 J-02 J-03 1000.0 600.0 0.26 0.0 
 P-03 J-03 J-04 1000.0 600.0 0.26 0.0 
 P-07 J-02 J-08 2000.0 600.0 0.26 0.0 
 P-08 J-03 J-09 2000.0 600.0 0.26 0.0 
 P-09 J-04 J-10 2000.0 450.0 0.26 0.0 
 P-13 J-08 J-09 1000.0 600.0 0.26 0.0 
 P-14 J-09 J-10 1000.0 450.0 0.26 0.0 
 P-18 J-08 J-14 2000.0 600.0 0.26 0.0 
 P-19 J-09 J-15 2000.0 450.0 0.26 0.0 
 P-20 J-10 J-16 2000.0 450.0 0.26 0.0 
 P-24 J-14 J-15 1000.0 450.0 0.26 0.0 
 P-25 J-15 J-16 1000.0 450.0 0.26 0.0 
 1 J-14 T-01 100.0 600.0 0.26 0.0 
 3 R-02 2 100.0 600.0 0.26 0.0 
 4 3 J-04 100.0 600.0 0.26 0.0 
 
 [PUMPS]
;id startnode endnode keyword value
2 2 3 HEAD 1 SPEED 1.0 
 
 [VALVES]
;id startnode endnode diameter valvetype setting minorloss
V-01 J-02 J-09 250.0 PRV 0.0 0.0 
 
 [EMITTERS]
;id emittercoefficient


[OPTIONS]
UNITS LPS
HEADLOSS D-W
QUALITY NONE
VISCOSITY 1.0
DIFFUSIVITY 1.0
SPECIFIC GRAVITY 1.0
TRIALS 40
ACCURACY 1.00000004749745E-10
UNBALANCED CONTINUE 10
PATTERN 1
DEMAND MULTIPLIER 1.0
EMITTER EXPONENT 1.0
TOLERANCE 1.00000004749745E-10
DEMAND MODEL PDA
MINIMUM PRESSURE 0.0
REQUIRED PRESSURE 10.0
PRESSURE EXPONENT 0.5

 [REPORT]
PAGESIZE 0
STATUS FULL
SUMMARY NO
ENERGY NO
NODES ALL
LINKS ALL
ELEVATION NO
DEMAND YES
HEAD YES
PRESSURE YES
QUALITY YES
LENGTH NO
DIAMETER NO
FLOW YES
VELOCITY YES
HEADLOSS YES
SETTING NO
REACTION NO
F-FACTOR NO
ELEVATION PRECISION 2
DEMAND PRECISION 5
HEAD PRECISION 2
PRESSURE PRECISION 2
QUALITY PRECISION 2
LENGTH PRECISION 2
DIAMETER PRECISION 2
FLOW PRECISION 2
VELOCITY PRECISION 2
HEADLOSS PRECISION 2
SETTING PRECISION 2
REACTION PRECISION 2
F-FACTOR PRECISION 2

 [TIMES]
DURATION 0:00
HYDRAULIC TIMESTEP 1:00
QUALITY TIMESTEP 0:05
PATTERN TIMESTEP 1:00
PATTERN START 0:00
REPORT TIMESTEP 1:00
REPORT START 0:00
START CLOCKTIME 00:00 am
STATISTIC NONE

 [CONTROLS]

 [CURVES]
;id xvalue yvalue
1 100.0 100.0

 [DEMANDS]
;id demand pattern category

 [ENERGY]
GLOBAL EFFICIENCY 75.0 
 GLOBAL PRICE 0.0 
 DEMAND CHARGE 0.0 
 
 [PATTERNS]
;id multipliers

 [RULES]

 [STATUS]
;id status/setting

 [MIXING]
;tankid mixingmodel compartmentvolume
T-01 MIXED 
 
 [QUALITY]
;id initialquality

 [REACTIONS]
ORDER BULK 1.0
ORDER WALL 1.0
ORDER TANK 1.0
GLOBAL BULK 0.0
GLOBAL WALL 0.0
LIMITING POTENTIAL 0.0
ROUGHNESS CORRELATION 0.0

 [SOURCES]
;id sourcetype strength sourcepattern

 [BACKDROP]

 [COORDINATES]
;nodeid xcoordinate ycoordinate
J-02 500.0 7500.0
J-03 500.0 7000.0
J-04 500.0 6500.0
J-08 1500.0 7500.0
J-09 1500.0 7000.0
J-10 1500.0 6500.0
J-14 2500.0 7500.0
J-15 2500.0 7000.0
J-16 2500.0 6500.0
2 33.517 6260.8
3 121.03 6309.645
T-01 3092.422 7924.35
R-01 -13.84 7924.35
R-02 -137.44 6157.005

 [LABELS]
;xcoordinate ycoordinate label anchornode

 [TAGS]

 [VERTICES]
;linkkid xcoordinate ycoordinate

 