[TITLE]


[JUNCTIONS]
;ID              	Elev        	Demand      	Pattern         
 J-02            	0           	50          	                	;
 J-03            	0           	50          	                	;
 J-04            	0           	50          	                	;
 J-05            	0           	50          	                	;
 J-06            	0           	50          	                	;
 J-07            	0           	50          	                	;
 J-08            	0           	50          	                	;
 J-09            	0           	50          	                	;
 J-10            	0           	50          	                	;
 J-11            	0           	50          	                	;
 J-12            	0           	50          	                	;
 J-13            	0           	50          	                	;
 J-14            	0           	50          	                	;
 J-15            	0           	50          	                	;
 J-16            	0           	50          	                	;
 J-17            	0           	50          	                	;
 J-18            	0           	50          	                	;
 J-19            	0           	50          	                	;
 J-20            	0           	50          	                	;
 J-21            	0           	50          	                	;
 J-22            	0           	50          	                	;
 J-23            	0           	50          	                	;
 J-24            	0           	50          	                	;
 J-25            	0           	50          	                	;
 J-26            	0           	50          	                	;
 J-27            	0           	50          	                	;
 J-28            	0           	50          	                	;
 J-29            	0           	50          	                	;
 J-30            	0           	50          	                	;
 J-31            	0           	50          	                	;

[RESERVOIRS]
;ID              	Head        	Pattern         
 J-01            	52          	                	;

[TANKS]
;ID              	Elevation   	InitLevel   	MinLevel    	MaxLevel    	Diameter    	MinVol      	VolCurve        	Overflow
 J-32            	0           	10          	0           	20          	50          	0           	                	;

[PIPES]
;ID              	Node1           	Node2           	Length      	Diameter    	Roughness   	MinorLoss   	Status
 P-01            	J-01            	J-02            	100         	600         	0.26        	0           	Open  	;
 P-02            	J-02            	J-03            	1000        	600         	0.26        	0           	Open  	;
 P-03            	J-03            	J-04            	1000        	600         	0.26        	0           	Open  	;
 P-04            	J-04            	J-05            	1000        	450         	0.26        	0           	Open  	;
 P-05            	J-05            	J-06            	1000        	450         	0.26        	0           	Open  	;
 P-06            	J-06            	J-07            	1000        	300         	0.26        	0           	Open  	;
 P-07            	J-02            	J-08            	2000        	600         	0.26        	0           	Closed	;
 P-08            	J-03            	J-09            	2000        	600         	0.26        	0           	Open  	;
 P-09            	J-04            	J-10            	2000        	450         	0.26        	0           	Open  	;
 P-10            	J-05            	J-11            	2000        	450         	0.26        	0           	Open  	;
 P-11            	J-06            	J-12            	2000        	300         	0.26        	0           	Open  	;
 P-12            	J-07            	J-13            	2000        	300         	0.26        	0           	Open  	;
 P-13            	J-08            	J-09            	1000        	600         	0.26        	0           	Open  	;
 P-14            	J-09            	J-10            	1000        	450         	0.26        	0           	Open  	;
 P-15            	J-10            	J-11            	1000        	450         	0.26        	0           	Open  	;
 P-16            	J-11            	J-12            	1000        	300         	0.26        	0           	Open  	;
 P-17            	J-12            	J-13            	1000        	300         	0.26        	0           	Open  	;
 P-18            	J-08            	J-14            	2000        	600         	0.26        	0           	Open  	;
 P-19            	J-09            	J-15            	2000        	450         	0.26        	0           	Open  	;
 P-20            	J-10            	J-16            	2000        	450         	0.26        	0           	Open  	;
 P-21            	J-11            	J-17            	2000        	300         	0.26        	0           	Open  	;
 P-22            	J-12            	J-18            	2000        	300         	0.26        	0           	Open  	;
 P-23            	J-13            	J-19            	2000        	300         	0.26        	0           	Open  	;
 P-24            	J-14            	J-15            	1000        	450         	0.26        	0           	Open  	;
 P-25            	J-15            	J-16            	1000        	450         	0.26        	0           	Open  	; 
 P-26            	J-16            	J-17            	1000        	300         	0.26        	0           	Open  	;
 P-27            	J-17            	J-18            	1000        	300         	0.26        	0           	Open  	;
 P-28            	J-18            	J-19            	1000        	300         	0.26        	0           	Open  	;
 P-29            	J-14            	J-20            	2000        	450         	0.26        	0           	Open  	;
 P-30            	J-15            	J-21            	2000        	450         	0.26        	0           	Open  	; 
 P-31            	J-16            	J-22            	2000        	300         	0.26        	0           	Open  	; 
 P-32            	J-17            	J-23            	2000        	300         	0.26        	0           	Open  	;
 P-33            	J-18            	J-24            	2000        	300         	0.26        	0           	Open  	;
 P-34            	J-19            	J-25            	2000        	300         	0.26        	0           	Open  	;
 P-35            	J-20            	J-21            	1000        	300         	0.26        	0           	Open  	;
 P-36            	J-21            	J-22            	1000        	300         	0.26        	0           	Open  	;
 P-37            	J-22            	J-23            	1000        	300         	0.26        	0           	Open  	;
 P-38            	J-23            	J-24            	1000        	300         	0.26        	0           	Open  	;
 P-39            	J-24            	J-25            	1000        	300         	0.26        	0           	Open  	;    
 P-40            	J-20            	J-26            	2000        	450         	0.26        	0           	Open  	;
 P-41            	J-21            	J-27            	2000        	300         	0.26        	0           	Open  	;
 P-42            	J-22            	J-28            	2000        	300         	0.26        	0           	Open  	;
 P-43            	J-23            	J-29            	2000        	300         	0.26        	0           	Open  	;
 P-44            	J-24            	J-30            	2000        	300         	0.26        	0           	Open  	;
 P-45            	J-25            	J-31            	2000        	300         	0.26        	0           	Open  	; 
 P-46            	J-26            	J-27            	1000        	300         	0.26        	0           	Open  	;
 P-47            	J-27            	J-28            	1000        	300         	0.26        	0           	Open  	;
 P-48            	J-28            	J-29            	1000        	300         	0.26        	0           	Open  	;
 P-49            	J-29            	J-30            	1000        	300         	0.26        	0           	Open  	;
 P-50            	J-30            	J-31            	1000        	300         	0.26        	0           	Open  	;
 P-51            	J-32            	J-26            	100         	600         	0.26        	0           	CV    	;

[PUMPS]
;ID              	Node1           	Node2           	Parameters
 P-1             	J-30            	J-29            	HEAD 2	;

[VALVES]
;ID              	Node1           	Node2           	Diameter    	Type	Setting     	MinorLoss   
 P-52            	J-09            	J-16            	500         	PRV 	20          	0           	;
 P-53            	J-11            	J-18            	500         	PSV 	10          	0           	;
 P-54            	J-15            	J-22            	500         	PBV 	15          	0           	;
 P-55            	J-17            	J-24            	500         	FCV 	20          	0           	;
 P-56            	J-03            	J-10            	500         	TCV 	10          	0           	;
 P-8             	J-05            	J-12            	500         	GPV 	1           	0           	;

[TAGS]

[DEMANDS]
;Junction        	Demand      	Pattern         	Category

[STATUS]
;ID              	Status/Setting

[PATTERNS]
;ID              	Multipliers

[CURVES]
;ID              	X-Value     	Y-Value
;PUMP: HEADLOSS: 
 1               	50          	5           
 1               	100         	10          
;PUMP: PUMP: 
 2               	50          	50          
;PUMP: VOLUME: 
 3               	2           	20          
 3               	5           	50          

[CONTROLS]





[RULES]





[ENERGY]
 Global Efficiency  	75
 Global Price       	0
 Demand Charge      	0

[EMITTERS]
;Junction        	Coefficient
 J-07            	1

[QUALITY]
;Node            	InitQual

[SOURCES]
;Node            	Type        	Quality     	Pattern

[REACTIONS]
;Type     	Pipe/Tank       	Coefficient


[REACTIONS]
 Order Bulk            	1
 Order Tank            	1
 Order Wall            	1
 Global Bulk           	0
 Global Wall           	0
 Limiting Potential    	0
 Roughness Correlation 	0

[MIXING]
;Tank            	Model

[TIMES]
 Duration           	0:00 
 Hydraulic Timestep 	1:00 
 Quality Timestep   	0:05 
 Pattern Timestep   	1:00 
 Pattern Start      	0:00 
 Report Timestep    	1:00 
 Report Start       	0:00 
 Start ClockTime    	12 am
 Statistic          	NONE

[REPORT]
 Status             	Full
 Summary            	No
 Page               	0

[OPTIONS]
 Units              	LPS
 Headloss           	D-W
 Specific Gravity   	1.0
 Viscosity          	1.0
 Trials             	40
 Accuracy           	1.00000004749745E-10
 CHECKFREQ          	2
 MAXCHECK           	40
 DAMPLIMIT          	0
 Unbalanced         	Continue 10
 Pattern            	1
 Demand Multiplier  	1.0
 Demand Model       	PDA
 Minimum Pressure   	0
 Required Pressure  	10
 Pressure Exponent  	0.5
 Emitter Exponent   	1.0
 Quality            	None mg/L
 Diffusivity        	1
 Tolerance          	1.00000004749745E-10

[COORDINATES]
;Node            	X-Coord           	Y-Coord
J-02            	500.000           	7500.000          
J-03            	500.000           	7000.000          
J-04            	500.000           	6500.000          
J-05            	500.000           	6000.000          
J-06            	500.000           	5500.000          
J-07            	500.000           	5000.000          
J-08            	1500.000          	7500.000          
J-09            	1500.000          	7000.000          
J-10            	1500.000          	6500.000          
J-11            	1500.000          	6000.000          
J-12            	1500.000          	5500.000          
J-13            	1500.000          	5000.000          
J-14            	2500.000          	7500.000          
J-15            	2500.000          	7000.000          
J-16            	2500.000          	6500.000          
J-17            	2500.000          	6000.000          
J-18            	2500.000          	5500.000          
J-19            	2500.000          	5000.000          
J-20            	3500.000          	7500.000          
J-21            	3500.000          	7000.000          
J-22            	3500.000          	6500.000          
J-23            	3500.000          	6000.000          
J-24            	3500.000          	5500.000          
J-25            	3500.000          	5000.000          
J-26            	4500.000          	7500.000          
J-27            	4500.000          	7000.000          
J-28            	4500.000          	6500.000          
J-29            	4500.000          	6000.000          
J-30            	4500.000          	5500.000          
J-31            	4500.000          	5000.000          
J-01            	-13.840           	7924.350          
J-32            	5201.044          	7943.687          

[VERTICES]
;Link            	X-Coord           	Y-Coord
P-07            	764.904           	7727.784          
P-07            	1068.616          	7379.078          
P-1             	4787.638          	5733.748          

[LABELS]
;X-Coord             Y-Coord             Label & Anchor Node

[BACKDROP]
  DIMENSIONS  	0.000             	0.000             	10000.000         	10000.000         
 UNITS          	None
 FILE           	
 OFFSET         	0.00            	0.00            

[END]
